*SPEF "ieee 1481-1999"
*DESIGN "alu"
*DATE "18:12:14 Tuesday July 01, 2025"
*VENDOR "The OpenROAD Project"
*PROGRAM "OpenROAD"
*VERSION "b16bda7e82721d10566ff7e2b68f1ff0be9f9e38"
*DESIGN_FLOW "NAME_SCOPE LOCAL" "PIN_CAP NONE"
*DIVIDER /
*DELIMITER :
*BUS_DELIMITER []
*T_UNIT 1 NS
*C_UNIT 1 PF
*R_UNIT 1 OHM
*L_UNIT 1 HENRY

*NAME_MAP
*3 alu_op[0]
*4 alu_op[1]
*5 alu_op[2]
*6 alu_op[3]
*7 net104
*8 op1[0]
*9 op1[10]
*10 op1[11]
*11 op1[12]
*12 op1[13]
*13 op1[14]
*14 op1[15]
*15 op1[16]
*16 op1[17]
*17 op1[18]
*18 op1[19]
*19 op1[1]
*20 op1[20]
*21 op1[21]
*22 op1[22]
*23 op1[23]
*24 op1[24]
*25 op1[25]
*26 op1[26]
*27 op1[27]
*28 op1[28]
*29 op1[29]
*30 op1[2]
*31 op1[30]
*32 op1[31]
*33 op1[3]
*34 op1[4]
*35 op1[5]
*36 op1[6]
*37 op1[7]
*38 op1[8]
*39 op1[9]
*40 op2[0]
*41 op2[10]
*42 op2[11]
*43 op2[12]
*44 op2[13]
*45 op2[14]
*46 op2[15]
*47 op2[16]
*48 op2[17]
*49 op2[18]
*50 op2[19]
*51 op2[1]
*52 op2[20]
*53 op2[21]
*54 op2[22]
*55 op2[23]
*56 op2[24]
*57 op2[25]
*58 op2[26]
*59 op2[27]
*60 op2[28]
*61 op2[29]
*62 op2[2]
*63 op2[30]
*64 op2[31]
*65 op2[3]
*66 op2[4]
*67 op2[5]
*68 op2[6]
*69 op2[7]
*70 op2[8]
*71 op2[9]
*72 net105
*73 result[0]
*74 result[10]
*75 result[11]
*76 result[12]
*77 result[13]
*78 result[14]
*79 result[15]
*80 result[16]
*81 result[17]
*82 result[18]
*83 result[19]
*84 result[1]
*85 result[20]
*86 result[21]
*87 result[22]
*88 result[23]
*89 result[24]
*90 result[25]
*91 result[26]
*92 result[27]
*93 result[28]
*94 result[29]
*95 result[2]
*96 result[30]
*97 result[31]
*98 result[3]
*99 result[4]
*100 result[5]
*101 result[6]
*102 result[7]
*103 result[8]
*104 result[9]
*105 zero
*106 _0000_
*107 _0001_
*108 _0002_
*109 _0003_
*110 _0004_
*111 _0005_
*112 _0006_
*113 _0007_
*114 _0008_
*115 _0009_
*116 _0010_
*117 _0011_
*118 _0012_
*119 _0013_
*120 _0014_
*121 _0015_
*122 _0016_
*123 _0017_
*124 _0018_
*125 _0019_
*126 _0020_
*127 _0021_
*128 _0022_
*129 _0023_
*130 _0024_
*131 _0025_
*132 _0026_
*133 _0027_
*134 _0028_
*135 _0029_
*136 _0030_
*137 _0031_
*138 _0032_
*139 _0033_
*140 _0034_
*141 _0035_
*142 _0036_
*143 _0037_
*144 _0038_
*145 _0039_
*146 _0040_
*147 _0041_
*148 _0042_
*149 _0043_
*150 _0044_
*151 _0045_
*152 _0046_
*153 _0047_
*154 _0048_
*155 _0049_
*156 _0050_
*157 _0051_
*158 _0052_
*159 _0053_
*160 _0054_
*161 _0055_
*162 _0056_
*163 _0057_
*164 _0058_
*165 _0059_
*166 _0060_
*167 _0061_
*168 _0062_
*169 _0063_
*170 _0064_
*171 _0065_
*172 _0066_
*173 _0067_
*174 _0068_
*175 _0069_
*176 _0070_
*177 _0071_
*178 _0072_
*179 _0073_
*180 _0074_
*181 _0075_
*182 _0076_
*183 _0077_
*184 _0078_
*185 _0079_
*186 _0080_
*187 _0081_
*188 _0082_
*189 _0083_
*190 _0084_
*191 _0085_
*192 _0086_
*193 _0087_
*194 _0088_
*195 _0089_
*196 _0090_
*197 _0091_
*198 _0092_
*199 _0093_
*200 _0094_
*201 _0095_
*202 _0096_
*203 _0097_
*204 _0098_
*205 _0099_
*206 _0100_
*207 _0101_
*208 _0102_
*209 _0103_
*210 _0104_
*211 _0105_
*212 _0106_
*213 _0107_
*214 _0108_
*215 _0109_
*216 _0110_
*217 _0111_
*218 _0112_
*219 _0113_
*220 _0114_
*221 _0115_
*222 _0116_
*223 _0117_
*224 _0118_
*225 _0119_
*226 _0120_
*227 _0121_
*228 _0122_
*229 _0123_
*230 _0124_
*231 _0125_
*232 _0126_
*233 _0127_
*234 _0128_
*235 _0129_
*236 _0130_
*237 _0131_
*238 _0132_
*239 _0133_
*240 _0134_
*241 _0135_
*242 _0136_
*243 _0137_
*244 _0138_
*245 _0139_
*246 _0140_
*247 _0141_
*248 _0142_
*249 _0143_
*250 _0144_
*251 _0145_
*252 _0146_
*253 _0147_
*254 _0148_
*255 _0149_
*256 _0150_
*257 _0151_
*258 _0152_
*259 _0153_
*260 _0154_
*261 _0155_
*262 _0156_
*263 _0157_
*264 _0158_
*265 _0159_
*266 _0160_
*267 _0161_
*268 _0162_
*269 _0163_
*270 _0164_
*271 _0165_
*272 _0166_
*273 _0167_
*274 _0168_
*275 _0169_
*276 _0170_
*277 _0171_
*278 _0172_
*279 _0173_
*280 _0174_
*281 _0175_
*282 _0176_
*283 _0177_
*284 _0178_
*285 _0179_
*286 _0180_
*287 _0181_
*288 _0182_
*289 _0183_
*290 _0184_
*291 _0185_
*292 _0186_
*293 _0187_
*294 _0188_
*295 _0189_
*296 _0190_
*297 _0191_
*298 _0192_
*299 _0193_
*300 _0194_
*301 _0195_
*302 _0196_
*303 _0197_
*304 _0198_
*305 _0199_
*306 _0200_
*307 _0201_
*308 _0202_
*309 _0203_
*310 _0204_
*311 _0205_
*312 _0206_
*313 _0207_
*314 _0208_
*315 _0209_
*316 _0210_
*317 _0211_
*318 _0212_
*319 _0213_
*320 _0214_
*321 _0215_
*322 _0216_
*323 _0217_
*324 _0218_
*325 _0219_
*326 _0220_
*327 _0221_
*328 _0222_
*329 _0223_
*330 _0224_
*331 _0225_
*332 _0226_
*333 _0227_
*334 _0228_
*335 _0229_
*336 _0230_
*337 _0231_
*338 _0232_
*339 _0233_
*340 _0234_
*341 _0235_
*342 _0236_
*343 _0237_
*344 _0238_
*345 _0239_
*346 _0240_
*347 _0241_
*348 _0242_
*349 _0243_
*350 _0244_
*351 _0245_
*352 _0246_
*353 _0247_
*354 _0248_
*355 _0249_
*356 _0250_
*357 _0251_
*358 _0252_
*359 _0253_
*360 _0254_
*361 _0255_
*362 _0256_
*363 _0257_
*364 _0258_
*365 _0259_
*366 _0260_
*367 _0261_
*368 _0262_
*369 _0263_
*370 _0264_
*371 _0265_
*372 _0266_
*373 _0267_
*374 _0268_
*375 _0269_
*376 _0270_
*377 _0271_
*378 _0272_
*379 _0273_
*380 _0274_
*381 _0275_
*382 _0276_
*383 _0277_
*384 _0278_
*385 _0279_
*386 _0280_
*387 _0281_
*388 _0282_
*389 _0283_
*390 _0284_
*391 _0285_
*392 _0286_
*393 _0287_
*394 _0288_
*395 _0289_
*396 _0290_
*397 _0291_
*398 _0292_
*399 _0293_
*400 _0294_
*401 _0295_
*402 _0296_
*403 _0297_
*404 _0298_
*405 _0299_
*406 _0300_
*407 _0301_
*408 _0302_
*409 _0303_
*410 _0304_
*411 _0305_
*412 _0306_
*413 _0307_
*414 _0308_
*415 _0309_
*416 _0310_
*417 _0311_
*418 _0312_
*419 _0313_
*420 _0314_
*421 _0315_
*422 _0316_
*423 _0317_
*424 _0318_
*425 _0319_
*426 _0320_
*427 _0321_
*428 _0322_
*429 _0323_
*430 _0324_
*431 _0325_
*432 _0326_
*433 _0327_
*434 _0328_
*435 _0329_
*436 _0330_
*437 _0331_
*438 _0332_
*439 _0333_
*440 _0334_
*441 _0335_
*442 _0336_
*443 _0337_
*444 _0338_
*445 _0339_
*446 _0340_
*447 _0341_
*448 _0342_
*449 _0343_
*450 _0344_
*451 _0345_
*452 _0346_
*453 _0347_
*454 _0348_
*455 _0349_
*456 _0350_
*457 _0351_
*458 _0352_
*459 _0353_
*460 _0354_
*461 _0355_
*462 _0356_
*463 _0357_
*464 _0358_
*465 _0359_
*466 _0360_
*467 _0361_
*468 _0362_
*469 _0363_
*470 _0364_
*471 _0365_
*472 _0366_
*473 _0367_
*474 _0368_
*475 _0369_
*476 _0370_
*477 _0371_
*478 _0372_
*479 _0373_
*480 _0374_
*481 _0375_
*482 _0376_
*483 _0377_
*484 _0378_
*485 _0379_
*486 _0380_
*487 _0381_
*488 _0382_
*489 _0383_
*490 _0384_
*491 _0385_
*492 _0386_
*493 _0387_
*494 _0388_
*495 _0389_
*496 _0390_
*497 _0391_
*498 _0392_
*499 _0393_
*500 _0394_
*501 _0395_
*502 _0396_
*503 _0397_
*504 _0398_
*505 _0399_
*506 _0400_
*507 _0401_
*508 _0402_
*509 _0403_
*510 _0404_
*511 _0405_
*512 _0406_
*513 _0407_
*514 _0408_
*515 _0409_
*516 _0410_
*517 _0411_
*518 _0412_
*519 _0413_
*520 _0414_
*521 _0415_
*522 _0416_
*523 _0417_
*524 _0418_
*525 _0419_
*526 _0420_
*527 _0421_
*528 _0422_
*529 _0423_
*530 _0424_
*531 _0425_
*532 _0426_
*533 _0427_
*534 _0428_
*535 _0429_
*536 _0430_
*537 _0431_
*538 _0432_
*539 _0433_
*540 _0434_
*541 _0435_
*542 _0436_
*543 _0437_
*544 _0438_
*545 _0439_
*546 _0440_
*547 _0441_
*548 _0442_
*549 _0443_
*550 _0444_
*551 _0445_
*552 _0446_
*553 _0447_
*554 _0448_
*555 _0449_
*556 _0450_
*557 _0451_
*558 _0452_
*559 _0453_
*560 _0454_
*561 _0455_
*562 _0456_
*563 _0457_
*564 _0458_
*565 _0459_
*566 _0460_
*567 _0461_
*568 _0462_
*569 _0463_
*570 _0464_
*571 _0465_
*572 _0466_
*573 _0467_
*574 _0468_
*575 _0469_
*576 _0470_
*577 _0471_
*578 _0472_
*579 _0473_
*580 _0474_
*581 _0475_
*582 _0476_
*583 _0477_
*584 _0478_
*585 _0479_
*586 _0480_
*587 _0481_
*588 _0482_
*589 _0483_
*590 _0484_
*591 _0485_
*592 _0486_
*593 _0487_
*594 _0488_
*595 _0489_
*596 _0490_
*597 _0491_
*598 _0492_
*599 _0493_
*600 _0494_
*601 _0495_
*602 _0496_
*603 _0497_
*604 _0498_
*605 _0499_
*606 _0500_
*607 _0501_
*608 _0502_
*609 _0503_
*610 _0504_
*611 _0505_
*612 _0506_
*613 _0507_
*614 _0508_
*615 _0509_
*616 _0510_
*617 _0511_
*618 _0512_
*619 _0513_
*620 _0514_
*621 _0515_
*622 _0516_
*623 _0517_
*624 _0518_
*625 _0519_
*626 _0520_
*627 _0521_
*628 _0522_
*629 _0523_
*630 _0524_
*631 _0525_
*632 _0526_
*633 _0527_
*634 _0528_
*635 _0529_
*636 _0530_
*637 _0531_
*638 _0532_
*639 _0533_
*640 _0534_
*641 _0535_
*642 _0536_
*643 _0537_
*644 _0538_
*645 _0539_
*646 _0540_
*647 _0541_
*648 _0542_
*649 _0543_
*650 _0544_
*651 _0545_
*652 _0546_
*653 _0547_
*654 _0548_
*655 _0549_
*656 _0550_
*657 _0551_
*658 _0552_
*659 _0553_
*660 _0554_
*661 _0555_
*662 _0556_
*663 _0557_
*664 _0558_
*665 _0559_
*666 _0560_
*667 _0561_
*668 _0562_
*669 _0563_
*670 _0564_
*671 _0565_
*672 _0566_
*673 _0567_
*674 _0568_
*675 _0569_
*676 _0570_
*677 _0571_
*678 _0572_
*679 _0573_
*680 _0574_
*681 _0575_
*682 _0576_
*683 _0577_
*684 _0578_
*685 _0579_
*686 _0580_
*687 _0581_
*688 _0582_
*689 _0583_
*690 _0584_
*691 _0585_
*692 _0586_
*693 _0587_
*694 _0588_
*695 _0589_
*696 _0590_
*697 _0591_
*698 _0592_
*699 _0593_
*700 _0594_
*701 _0595_
*702 _0596_
*703 _0597_
*704 _0598_
*705 _0599_
*706 _0600_
*707 _0601_
*708 _0602_
*709 _0603_
*710 _0604_
*711 _0605_
*712 _0606_
*713 _0607_
*714 _0608_
*715 _0609_
*716 _0610_
*717 _0611_
*718 _0612_
*719 _0613_
*720 _0614_
*721 _0615_
*722 _0616_
*723 _0617_
*724 _0618_
*725 _0619_
*726 _0620_
*727 _0621_
*728 _0622_
*729 _0623_
*730 _0624_
*731 _0625_
*732 _0626_
*733 _0627_
*734 _0628_
*735 _0629_
*736 _0630_
*737 _0631_
*738 _0632_
*739 _0633_
*740 _0634_
*741 _0635_
*742 _0636_
*743 _0637_
*744 _0638_
*745 _0639_
*746 _0640_
*747 _0641_
*748 _0642_
*749 _0643_
*750 _0644_
*751 _0645_
*752 _0646_
*753 _0647_
*754 _0648_
*755 _0649_
*756 _0650_
*757 _0651_
*758 _0652_
*759 _0653_
*760 _0654_
*761 _0655_
*762 _0656_
*763 _0657_
*764 _0658_
*765 _0659_
*766 _0660_
*767 _0661_
*768 _0662_
*769 _0663_
*770 _0664_
*771 _0665_
*772 _0666_
*773 _0667_
*774 _0668_
*775 _0669_
*776 _0670_
*777 _0671_
*778 _0672_
*779 _0673_
*780 _0674_
*781 _0675_
*782 _0676_
*783 _0677_
*784 _0678_
*785 _0679_
*786 _0680_
*787 _0681_
*788 _0682_
*789 _0683_
*790 _0684_
*791 _0685_
*792 _0686_
*793 _0687_
*794 _0688_
*795 _0689_
*796 _0690_
*797 _0691_
*798 _0692_
*799 _0693_
*800 _0694_
*801 _0695_
*802 _0696_
*803 _0697_
*804 _0698_
*805 _0699_
*806 _0700_
*807 _0701_
*808 _0702_
*809 _0703_
*810 _0704_
*811 _0705_
*812 _0706_
*813 _0707_
*814 _0708_
*815 _0709_
*816 _0710_
*817 _0711_
*818 _0712_
*819 _0713_
*820 _0714_
*821 _0715_
*822 _0716_
*823 _0717_
*824 _0718_
*825 _0719_
*826 _0720_
*827 _0721_
*828 _0722_
*829 _0723_
*830 _0724_
*831 _0725_
*832 _0726_
*833 _0727_
*834 _0728_
*835 _0729_
*836 _0730_
*837 _0731_
*838 _0732_
*839 _0733_
*840 _0734_
*841 _0735_
*842 _0736_
*843 _0737_
*844 _0738_
*845 _0739_
*846 _0740_
*847 _0741_
*848 _0742_
*849 _0743_
*850 _0744_
*851 _0745_
*852 _0746_
*853 _0747_
*854 _0748_
*855 _0749_
*856 _0750_
*857 _0751_
*858 _0752_
*859 _0753_
*860 _0754_
*861 _0755_
*862 _0756_
*863 _0757_
*864 _0758_
*865 _0759_
*866 _0760_
*867 _0761_
*868 _0762_
*869 _0763_
*870 _0764_
*871 _0765_
*872 _0766_
*873 _0767_
*874 _0768_
*875 _0769_
*876 _0770_
*877 _0771_
*878 _0772_
*879 _0773_
*880 _0774_
*881 _0775_
*882 _0776_
*883 _0777_
*884 _0778_
*885 _0779_
*886 _0780_
*887 _0781_
*888 _0782_
*889 _0783_
*890 _0784_
*891 _0785_
*892 _0786_
*893 _0787_
*894 _0788_
*895 _0789_
*896 _0790_
*897 _0791_
*898 _0792_
*899 _0793_
*900 _0794_
*901 _0795_
*902 _0796_
*903 _0797_
*904 _0798_
*905 _0799_
*906 _0800_
*907 _0801_
*908 _0802_
*909 _0803_
*910 _0804_
*911 _0805_
*912 _0806_
*913 _0807_
*914 _0808_
*915 _0809_
*916 _0810_
*917 _0811_
*918 _0812_
*919 _0813_
*920 _0814_
*921 _0815_
*922 _0816_
*923 _0817_
*924 _0818_
*925 _0819_
*926 _0820_
*927 _0821_
*928 _0822_
*929 _0823_
*930 _0824_
*931 _0825_
*932 _0826_
*933 _0827_
*934 _0828_
*935 _0829_
*936 _0830_
*937 _0831_
*938 _0832_
*939 _0833_
*940 _0834_
*941 _0835_
*942 _0836_
*943 _0837_
*944 _0838_
*945 _0839_
*946 _0840_
*947 _0841_
*948 _0842_
*949 _0843_
*950 _0844_
*951 _0845_
*952 _0846_
*953 _0847_
*954 _0848_
*955 _0849_
*956 _0850_
*957 _0851_
*958 _0852_
*959 _0853_
*960 _0854_
*961 _0855_
*962 _0856_
*963 _0857_
*964 _0858_
*965 _0859_
*966 _0860_
*967 _0861_
*968 _0862_
*969 _0863_
*970 _0864_
*971 _0865_
*972 _0866_
*973 _0867_
*974 _0868_
*975 _0869_
*976 _0870_
*977 _0871_
*978 _0872_
*979 _0873_
*980 _0874_
*981 _0875_
*982 _0876_
*983 _0877_
*984 _0878_
*985 _0879_
*986 _0880_
*987 _0881_
*988 _0882_
*989 _0883_
*990 _0884_
*991 _0885_
*992 _0886_
*993 _0887_
*994 _0888_
*995 _0889_
*996 _0890_
*997 _0891_
*998 _0892_
*999 _0893_
*1000 _0894_
*1001 _0895_
*1002 _0896_
*1003 _0897_
*1004 _0898_
*1005 _0899_
*1006 _0900_
*1007 _0901_
*1008 _0902_
*1009 _0903_
*1010 _0904_
*1011 _0905_
*1012 _0906_
*1013 _0907_
*1014 _0908_
*1015 _0909_
*1016 _0910_
*1017 _0911_
*1018 _0912_
*1019 _0913_
*1020 _0914_
*1021 _0915_
*1022 _0916_
*1023 _0917_
*1024 _0918_
*1025 _0919_
*1026 _0920_
*1027 _0921_
*1028 _0922_
*1029 _0923_
*1030 _0924_
*1031 _0925_
*1032 _0926_
*1033 _0927_
*1034 _0928_
*1035 _0929_
*1036 _0930_
*1037 _0931_
*1038 _0932_
*1039 _0933_
*1040 _0934_
*1041 _0935_
*1042 _0936_
*1043 _0937_
*1044 _0938_
*1045 _0939_
*1046 _0940_
*1047 _0941_
*1048 _0942_
*1049 _0943_
*1050 _0944_
*1051 _0945_
*1052 _0946_
*1053 _0947_
*1054 _0948_
*1055 _0949_
*1056 _0950_
*1057 _0951_
*1058 _0952_
*1059 _0953_
*1060 _0954_
*1061 _0955_
*1062 _0956_
*1063 _0957_
*1064 _0958_
*1065 _0959_
*1066 _0960_
*1067 _0961_
*1068 _0962_
*1069 _0963_
*1070 _0964_
*1071 _0965_
*1072 _0966_
*1073 _0967_
*1074 _0968_
*1075 _0969_
*1076 _0970_
*1077 _0971_
*1078 _0972_
*1079 _0973_
*1080 _0974_
*1081 _0975_
*1082 _0976_
*1083 _0977_
*1084 _0978_
*1085 _0979_
*1086 _0980_
*1087 _0981_
*1088 net1
*1089 net10
*1090 net100
*1091 net101
*1092 net102
*1093 net103
*1094 net106
*1095 net107
*1096 net108
*1097 net109
*1098 net11
*1099 net110
*1100 net111
*1101 net112
*1102 net113
*1103 net114
*1104 net115
*1105 net116
*1106 net117
*1107 net118
*1108 net119
*1109 net12
*1110 net120
*1111 net121
*1112 net13
*1113 net14
*1114 net15
*1115 net16
*1116 net17
*1117 net18
*1118 net19
*1119 net2
*1120 net20
*1121 net21
*1122 net22
*1123 net23
*1124 net24
*1125 net25
*1126 net26
*1127 net27
*1128 net28
*1129 net29
*1130 net3
*1131 net30
*1132 net31
*1133 net32
*1134 net33
*1135 net34
*1136 net35
*1137 net36
*1138 net37
*1139 net38
*1140 net39
*1141 net4
*1142 net40
*1143 net41
*1144 net42
*1145 net43
*1146 net44
*1147 net45
*1148 net46
*1149 net47
*1150 net48
*1151 net49
*1152 net5
*1153 net50
*1154 net51
*1155 net52
*1156 net53
*1157 net54
*1158 net55
*1159 net56
*1160 net57
*1161 net58
*1162 net59
*1163 net6
*1164 net60
*1165 net61
*1166 net62
*1167 net63
*1168 net64
*1169 net65
*1170 net66
*1171 net67
*1172 net68
*1173 net69
*1174 net7
*1175 net70
*1176 net71
*1177 net72
*1178 net73
*1179 net74
*1180 net75
*1181 net76
*1182 net77
*1183 net78
*1184 net79
*1185 net8
*1186 net80
*1187 net81
*1188 net82
*1189 net83
*1190 net84
*1191 net85
*1192 net86
*1193 net87
*1194 net88
*1195 net89
*1196 net9
*1197 net90
*1198 net91
*1199 net92
*1200 net93
*1201 net94
*1202 net95
*1203 net96
*1204 net97
*1205 net98
*1206 net99
*1207 ANTENNA_1
*1208 ANTENNA_2
*1209 ANTENNA_3
*1210 FILLER_0_0_104
*1211 FILLER_0_0_108
*1212 FILLER_0_0_127
*1213 FILLER_0_0_132
*1214 FILLER_0_0_141
*1215 FILLER_0_0_147
*1216 FILLER_0_0_15
*1217 FILLER_0_0_154
*1218 FILLER_0_0_161
*1219 FILLER_0_0_169
*1220 FILLER_0_0_174
*1221 FILLER_0_0_188
*1222 FILLER_0_0_212
*1223 FILLER_0_0_225
*1224 FILLER_0_0_230
*1225 FILLER_0_0_238
*1226 FILLER_0_0_245
*1227 FILLER_0_0_251
*1228 FILLER_0_0_253
*1229 FILLER_0_0_265
*1230 FILLER_0_0_27
*1231 FILLER_0_0_277
*1232 FILLER_0_0_281
*1233 FILLER_0_0_29
*1234 FILLER_0_0_293
*1235 FILLER_0_0_3
*1236 FILLER_0_0_41
*1237 FILLER_0_0_49
*1238 FILLER_0_0_57
*1239 FILLER_0_0_63
*1240 FILLER_0_0_75
*1241 FILLER_0_0_79
*1242 FILLER_0_0_85
*1243 FILLER_0_0_91
*1244 FILLER_0_0_97
*1245 FILLER_0_10_109
*1246 FILLER_0_10_137
*1247 FILLER_0_10_141
*1248 FILLER_0_10_15
*1249 FILLER_0_10_168
*1250 FILLER_0_10_180
*1251 FILLER_0_10_192
*1252 FILLER_0_10_197
*1253 FILLER_0_10_209
*1254 FILLER_0_10_221
*1255 FILLER_0_10_229
*1256 FILLER_0_10_25
*1257 FILLER_0_10_283
*1258 FILLER_0_10_29
*1259 FILLER_0_10_33
*1260 FILLER_0_10_44
*1261 FILLER_0_10_62
*1262 FILLER_0_10_7
*1263 FILLER_0_10_74
*1264 FILLER_0_10_78
*1265 FILLER_0_10_82
*1266 FILLER_0_10_89
*1267 FILLER_0_10_93
*1268 FILLER_0_10_97
*1269 FILLER_0_11_106
*1270 FILLER_0_11_117
*1271 FILLER_0_11_125
*1272 FILLER_0_11_149
*1273 FILLER_0_11_161
*1274 FILLER_0_11_167
*1275 FILLER_0_11_19
*1276 FILLER_0_11_216
*1277 FILLER_0_11_249
*1278 FILLER_0_11_261
*1279 FILLER_0_11_27
*1280 FILLER_0_11_273
*1281 FILLER_0_11_279
*1282 FILLER_0_11_281
*1283 FILLER_0_11_289
*1284 FILLER_0_11_46
*1285 FILLER_0_11_55
*1286 FILLER_0_11_57
*1287 FILLER_0_11_65
*1288 FILLER_0_11_7
*1289 FILLER_0_11_84
*1290 FILLER_0_11_88
*1291 FILLER_0_11_95
*1292 FILLER_0_11_99
*1293 FILLER_0_12_112
*1294 FILLER_0_12_121
*1295 FILLER_0_12_139
*1296 FILLER_0_12_145
*1297 FILLER_0_12_153
*1298 FILLER_0_12_168
*1299 FILLER_0_12_190
*1300 FILLER_0_12_218
*1301 FILLER_0_12_230
*1302 FILLER_0_12_235
*1303 FILLER_0_12_243
*1304 FILLER_0_12_253
*1305 FILLER_0_12_267
*1306 FILLER_0_12_275
*1307 FILLER_0_12_282
*1308 FILLER_0_12_29
*1309 FILLER_0_12_290
*1310 FILLER_0_12_41
*1311 FILLER_0_12_52
*1312 FILLER_0_12_60
*1313 FILLER_0_12_7
*1314 FILLER_0_12_72
*1315 FILLER_0_12_80
*1316 FILLER_0_12_93
*1317 FILLER_0_13_103
*1318 FILLER_0_13_111
*1319 FILLER_0_13_113
*1320 FILLER_0_13_15
*1321 FILLER_0_13_169
*1322 FILLER_0_13_180
*1323 FILLER_0_13_184
*1324 FILLER_0_13_197
*1325 FILLER_0_13_201
*1326 FILLER_0_13_217
*1327 FILLER_0_13_223
*1328 FILLER_0_13_225
*1329 FILLER_0_13_237
*1330 FILLER_0_13_250
*1331 FILLER_0_13_262
*1332 FILLER_0_13_27
*1333 FILLER_0_13_277
*1334 FILLER_0_13_281
*1335 FILLER_0_13_293
*1336 FILLER_0_13_3
*1337 FILLER_0_13_33
*1338 FILLER_0_13_57
*1339 FILLER_0_13_70
*1340 FILLER_0_13_82
*1341 FILLER_0_13_94
*1342 FILLER_0_13_98
*1343 FILLER_0_14_11
*1344 FILLER_0_14_132
*1345 FILLER_0_14_141
*1346 FILLER_0_14_15
*1347 FILLER_0_14_153
*1348 FILLER_0_14_165
*1349 FILLER_0_14_177
*1350 FILLER_0_14_185
*1351 FILLER_0_14_192
*1352 FILLER_0_14_197
*1353 FILLER_0_14_203
*1354 FILLER_0_14_211
*1355 FILLER_0_14_23
*1356 FILLER_0_14_231
*1357 FILLER_0_14_235
*1358 FILLER_0_14_247
*1359 FILLER_0_14_251
*1360 FILLER_0_14_260
*1361 FILLER_0_14_42
*1362 FILLER_0_14_55
*1363 FILLER_0_14_63
*1364 FILLER_0_14_67
*1365 FILLER_0_14_7
*1366 FILLER_0_14_72
*1367 FILLER_0_14_92
*1368 FILLER_0_15_105
*1369 FILLER_0_15_111
*1370 FILLER_0_15_142
*1371 FILLER_0_15_154
*1372 FILLER_0_15_167
*1373 FILLER_0_15_169
*1374 FILLER_0_15_200
*1375 FILLER_0_15_207
*1376 FILLER_0_15_216
*1377 FILLER_0_15_228
*1378 FILLER_0_15_234
*1379 FILLER_0_15_251
*1380 FILLER_0_15_255
*1381 FILLER_0_15_260
*1382 FILLER_0_15_266
*1383 FILLER_0_15_278
*1384 FILLER_0_15_29
*1385 FILLER_0_15_294
*1386 FILLER_0_15_42
*1387 FILLER_0_15_53
*1388 FILLER_0_15_64
*1389 FILLER_0_15_68
*1390 FILLER_0_15_90
*1391 FILLER_0_15_96
*1392 FILLER_0_16_102
*1393 FILLER_0_16_114
*1394 FILLER_0_16_138
*1395 FILLER_0_16_141
*1396 FILLER_0_16_145
*1397 FILLER_0_16_15
*1398 FILLER_0_16_163
*1399 FILLER_0_16_167
*1400 FILLER_0_16_175
*1401 FILLER_0_16_179
*1402 FILLER_0_16_188
*1403 FILLER_0_16_197
*1404 FILLER_0_16_203
*1405 FILLER_0_16_211
*1406 FILLER_0_16_234
*1407 FILLER_0_16_246
*1408 FILLER_0_16_253
*1409 FILLER_0_16_257
*1410 FILLER_0_16_27
*1411 FILLER_0_16_270
*1412 FILLER_0_16_282
*1413 FILLER_0_16_290
*1414 FILLER_0_16_44
*1415 FILLER_0_16_61
*1416 FILLER_0_16_65
*1417 FILLER_0_16_69
*1418 FILLER_0_16_7
*1419 FILLER_0_16_81
*1420 FILLER_0_16_85
*1421 FILLER_0_16_90
*1422 FILLER_0_17_110
*1423 FILLER_0_17_113
*1424 FILLER_0_17_125
*1425 FILLER_0_17_14
*1426 FILLER_0_17_147
*1427 FILLER_0_17_159
*1428 FILLER_0_17_167
*1429 FILLER_0_17_183
*1430 FILLER_0_17_195
*1431 FILLER_0_17_203
*1432 FILLER_0_17_213
*1433 FILLER_0_17_221
*1434 FILLER_0_17_225
*1435 FILLER_0_17_238
*1436 FILLER_0_17_256
*1437 FILLER_0_17_268
*1438 FILLER_0_17_272
*1439 FILLER_0_17_281
*1440 FILLER_0_17_289
*1441 FILLER_0_17_34
*1442 FILLER_0_17_45
*1443 FILLER_0_17_53
*1444 FILLER_0_17_57
*1445 FILLER_0_17_6
*1446 FILLER_0_17_62
*1447 FILLER_0_17_71
*1448 FILLER_0_17_86
*1449 FILLER_0_18_104
*1450 FILLER_0_18_128
*1451 FILLER_0_18_141
*1452 FILLER_0_18_168
*1453 FILLER_0_18_180
*1454 FILLER_0_18_187
*1455 FILLER_0_18_206
*1456 FILLER_0_18_21
*1457 FILLER_0_18_218
*1458 FILLER_0_18_226
*1459 FILLER_0_18_244
*1460 FILLER_0_18_27
*1461 FILLER_0_18_293
*1462 FILLER_0_18_3
*1463 FILLER_0_18_42
*1464 FILLER_0_18_52
*1465 FILLER_0_18_61
*1466 FILLER_0_18_77
*1467 FILLER_0_18_83
*1468 FILLER_0_18_85
*1469 FILLER_0_19_109
*1470 FILLER_0_19_122
*1471 FILLER_0_19_134
*1472 FILLER_0_19_147
*1473 FILLER_0_19_159
*1474 FILLER_0_19_167
*1475 FILLER_0_19_187
*1476 FILLER_0_19_19
*1477 FILLER_0_19_200
*1478 FILLER_0_19_206
*1479 FILLER_0_19_210
*1480 FILLER_0_19_214
*1481 FILLER_0_19_236
*1482 FILLER_0_19_248
*1483 FILLER_0_19_257
*1484 FILLER_0_19_265
*1485 FILLER_0_19_276
*1486 FILLER_0_19_281
*1487 FILLER_0_19_287
*1488 FILLER_0_19_291
*1489 FILLER_0_19_31
*1490 FILLER_0_19_55
*1491 FILLER_0_19_57
*1492 FILLER_0_19_66
*1493 FILLER_0_19_7
*1494 FILLER_0_19_70
*1495 FILLER_0_19_73
*1496 FILLER_0_19_85
*1497 FILLER_0_19_97
*1498 FILLER_0_1_101
*1499 FILLER_0_1_109
*1500 FILLER_0_1_119
*1501 FILLER_0_1_131
*1502 FILLER_0_1_136
*1503 FILLER_0_1_15
*1504 FILLER_0_1_154
*1505 FILLER_0_1_160
*1506 FILLER_0_1_183
*1507 FILLER_0_1_198
*1508 FILLER_0_1_203
*1509 FILLER_0_1_225
*1510 FILLER_0_1_237
*1511 FILLER_0_1_249
*1512 FILLER_0_1_261
*1513 FILLER_0_1_27
*1514 FILLER_0_1_273
*1515 FILLER_0_1_279
*1516 FILLER_0_1_281
*1517 FILLER_0_1_289
*1518 FILLER_0_1_3
*1519 FILLER_0_1_39
*1520 FILLER_0_1_51
*1521 FILLER_0_1_55
*1522 FILLER_0_1_57
*1523 FILLER_0_1_69
*1524 FILLER_0_1_81
*1525 FILLER_0_1_93
*1526 FILLER_0_20_103
*1527 FILLER_0_20_109
*1528 FILLER_0_20_11
*1529 FILLER_0_20_165
*1530 FILLER_0_20_173
*1531 FILLER_0_20_185
*1532 FILLER_0_20_19
*1533 FILLER_0_20_197
*1534 FILLER_0_20_201
*1535 FILLER_0_20_215
*1536 FILLER_0_20_230
*1537 FILLER_0_20_242
*1538 FILLER_0_20_249
*1539 FILLER_0_20_253
*1540 FILLER_0_20_26
*1541 FILLER_0_20_265
*1542 FILLER_0_20_273
*1543 FILLER_0_20_285
*1544 FILLER_0_20_55
*1545 FILLER_0_20_63
*1546 FILLER_0_20_72
*1547 FILLER_0_20_98
*1548 FILLER_0_21_107
*1549 FILLER_0_21_111
*1550 FILLER_0_21_117
*1551 FILLER_0_21_125
*1552 FILLER_0_21_135
*1553 FILLER_0_21_147
*1554 FILLER_0_21_159
*1555 FILLER_0_21_17
*1556 FILLER_0_21_177
*1557 FILLER_0_21_189
*1558 FILLER_0_21_201
*1559 FILLER_0_21_205
*1560 FILLER_0_21_214
*1561 FILLER_0_21_222
*1562 FILLER_0_21_228
*1563 FILLER_0_21_240
*1564 FILLER_0_21_251
*1565 FILLER_0_21_265
*1566 FILLER_0_21_278
*1567 FILLER_0_21_29
*1568 FILLER_0_21_294
*1569 FILLER_0_21_3
*1570 FILLER_0_21_43
*1571 FILLER_0_21_53
*1572 FILLER_0_21_71
*1573 FILLER_0_21_80
*1574 FILLER_0_21_88
*1575 FILLER_0_22_102
*1576 FILLER_0_22_114
*1577 FILLER_0_22_118
*1578 FILLER_0_22_128
*1579 FILLER_0_22_139
*1580 FILLER_0_22_150
*1581 FILLER_0_22_163
*1582 FILLER_0_22_179
*1583 FILLER_0_22_19
*1584 FILLER_0_22_195
*1585 FILLER_0_22_197
*1586 FILLER_0_22_212
*1587 FILLER_0_22_228
*1588 FILLER_0_22_253
*1589 FILLER_0_22_27
*1590 FILLER_0_22_45
*1591 FILLER_0_22_53
*1592 FILLER_0_22_59
*1593 FILLER_0_22_68
*1594 FILLER_0_22_7
*1595 FILLER_0_22_80
*1596 FILLER_0_22_92
*1597 FILLER_0_23_101
*1598 FILLER_0_23_11
*1599 FILLER_0_23_134
*1600 FILLER_0_23_145
*1601 FILLER_0_23_165
*1602 FILLER_0_23_169
*1603 FILLER_0_23_177
*1604 FILLER_0_23_185
*1605 FILLER_0_23_197
*1606 FILLER_0_23_20
*1607 FILLER_0_23_206
*1608 FILLER_0_23_223
*1609 FILLER_0_23_225
*1610 FILLER_0_23_237
*1611 FILLER_0_23_246
*1612 FILLER_0_23_25
*1613 FILLER_0_23_258
*1614 FILLER_0_23_276
*1615 FILLER_0_23_29
*1616 FILLER_0_23_3
*1617 FILLER_0_23_54
*1618 FILLER_0_23_82
*1619 FILLER_0_23_90
*1620 FILLER_0_24_121
*1621 FILLER_0_24_133
*1622 FILLER_0_24_139
*1623 FILLER_0_24_141
*1624 FILLER_0_24_153
*1625 FILLER_0_24_179
*1626 FILLER_0_24_189
*1627 FILLER_0_24_195
*1628 FILLER_0_24_197
*1629 FILLER_0_24_205
*1630 FILLER_0_24_217
*1631 FILLER_0_24_223
*1632 FILLER_0_24_233
*1633 FILLER_0_24_251
*1634 FILLER_0_24_262
*1635 FILLER_0_24_281
*1636 FILLER_0_24_294
*1637 FILLER_0_24_32
*1638 FILLER_0_24_50
*1639 FILLER_0_24_56
*1640 FILLER_0_24_66
*1641 FILLER_0_24_7
*1642 FILLER_0_24_70
*1643 FILLER_0_24_83
*1644 FILLER_0_24_85
*1645 FILLER_0_24_95
*1646 FILLER_0_24_99
*1647 FILLER_0_25_102
*1648 FILLER_0_25_110
*1649 FILLER_0_25_113
*1650 FILLER_0_25_127
*1651 FILLER_0_25_135
*1652 FILLER_0_25_167
*1653 FILLER_0_25_169
*1654 FILLER_0_25_189
*1655 FILLER_0_25_19
*1656 FILLER_0_25_221
*1657 FILLER_0_25_237
*1658 FILLER_0_25_244
*1659 FILLER_0_25_265
*1660 FILLER_0_25_41
*1661 FILLER_0_25_46
*1662 FILLER_0_25_54
*1663 FILLER_0_25_57
*1664 FILLER_0_25_7
*1665 FILLER_0_25_78
*1666 FILLER_0_25_90
*1667 FILLER_0_26_100
*1668 FILLER_0_26_106
*1669 FILLER_0_26_128
*1670 FILLER_0_26_13
*1671 FILLER_0_26_138
*1672 FILLER_0_26_147
*1673 FILLER_0_26_155
*1674 FILLER_0_26_160
*1675 FILLER_0_26_164
*1676 FILLER_0_26_174
*1677 FILLER_0_26_186
*1678 FILLER_0_26_194
*1679 FILLER_0_26_197
*1680 FILLER_0_26_209
*1681 FILLER_0_26_221
*1682 FILLER_0_26_233
*1683 FILLER_0_26_239
*1684 FILLER_0_26_247
*1685 FILLER_0_26_25
*1686 FILLER_0_26_251
*1687 FILLER_0_26_257
*1688 FILLER_0_26_265
*1689 FILLER_0_26_269
*1690 FILLER_0_26_273
*1691 FILLER_0_26_279
*1692 FILLER_0_26_283
*1693 FILLER_0_26_29
*1694 FILLER_0_26_46
*1695 FILLER_0_26_54
*1696 FILLER_0_26_66
*1697 FILLER_0_26_7
*1698 FILLER_0_26_72
*1699 FILLER_0_26_77
*1700 FILLER_0_26_85
*1701 FILLER_0_27_100
*1702 FILLER_0_27_113
*1703 FILLER_0_27_12
*1704 FILLER_0_27_125
*1705 FILLER_0_27_133
*1706 FILLER_0_27_138
*1707 FILLER_0_27_149
*1708 FILLER_0_27_161
*1709 FILLER_0_27_167
*1710 FILLER_0_27_169
*1711 FILLER_0_27_205
*1712 FILLER_0_27_213
*1713 FILLER_0_27_221
*1714 FILLER_0_27_234
*1715 FILLER_0_27_24
*1716 FILLER_0_27_250
*1717 FILLER_0_27_254
*1718 FILLER_0_27_269
*1719 FILLER_0_27_28
*1720 FILLER_0_27_281
*1721 FILLER_0_27_291
*1722 FILLER_0_27_33
*1723 FILLER_0_27_38
*1724 FILLER_0_27_50
*1725 FILLER_0_27_54
*1726 FILLER_0_27_57
*1727 FILLER_0_27_6
*1728 FILLER_0_27_66
*1729 FILLER_0_27_79
*1730 FILLER_0_27_91
*1731 FILLER_0_27_95
*1732 FILLER_0_28_116
*1733 FILLER_0_28_131
*1734 FILLER_0_28_135
*1735 FILLER_0_28_150
*1736 FILLER_0_28_156
*1737 FILLER_0_28_162
*1738 FILLER_0_28_172
*1739 FILLER_0_28_184
*1740 FILLER_0_28_190
*1741 FILLER_0_28_208
*1742 FILLER_0_28_226
*1743 FILLER_0_28_250
*1744 FILLER_0_28_262
*1745 FILLER_0_28_274
*1746 FILLER_0_28_286
*1747 FILLER_0_28_49
*1748 FILLER_0_28_57
*1749 FILLER_0_28_6
*1750 FILLER_0_28_61
*1751 FILLER_0_28_72
*1752 FILLER_0_28_85
*1753 FILLER_0_28_94
*1754 FILLER_0_29_102
*1755 FILLER_0_29_110
*1756 FILLER_0_29_113
*1757 FILLER_0_29_119
*1758 FILLER_0_29_129
*1759 FILLER_0_29_141
*1760 FILLER_0_29_15
*1761 FILLER_0_29_167
*1762 FILLER_0_29_169
*1763 FILLER_0_29_190
*1764 FILLER_0_29_198
*1765 FILLER_0_29_207
*1766 FILLER_0_29_213
*1767 FILLER_0_29_225
*1768 FILLER_0_29_237
*1769 FILLER_0_29_245
*1770 FILLER_0_29_257
*1771 FILLER_0_29_269
*1772 FILLER_0_29_273
*1773 FILLER_0_29_279
*1774 FILLER_0_29_288
*1775 FILLER_0_29_37
*1776 FILLER_0_29_52
*1777 FILLER_0_29_57
*1778 FILLER_0_29_7
*1779 FILLER_0_29_86
*1780 FILLER_0_2_117
*1781 FILLER_0_2_123
*1782 FILLER_0_2_139
*1783 FILLER_0_2_145
*1784 FILLER_0_2_149
*1785 FILLER_0_2_15
*1786 FILLER_0_2_168
*1787 FILLER_0_2_172
*1788 FILLER_0_2_182
*1789 FILLER_0_2_195
*1790 FILLER_0_2_197
*1791 FILLER_0_2_201
*1792 FILLER_0_2_205
*1793 FILLER_0_2_217
*1794 FILLER_0_2_229
*1795 FILLER_0_2_241
*1796 FILLER_0_2_249
*1797 FILLER_0_2_253
*1798 FILLER_0_2_265
*1799 FILLER_0_2_27
*1800 FILLER_0_2_277
*1801 FILLER_0_2_289
*1802 FILLER_0_2_29
*1803 FILLER_0_2_3
*1804 FILLER_0_2_41
*1805 FILLER_0_2_53
*1806 FILLER_0_2_65
*1807 FILLER_0_2_79
*1808 FILLER_0_2_83
*1809 FILLER_0_2_85
*1810 FILLER_0_2_97
*1811 FILLER_0_30_101
*1812 FILLER_0_30_132
*1813 FILLER_0_30_150
*1814 FILLER_0_30_155
*1815 FILLER_0_30_161
*1816 FILLER_0_30_165
*1817 FILLER_0_30_169
*1818 FILLER_0_30_176
*1819 FILLER_0_30_187
*1820 FILLER_0_30_21
*1821 FILLER_0_30_216
*1822 FILLER_0_30_233
*1823 FILLER_0_30_260
*1824 FILLER_0_30_270
*1825 FILLER_0_30_282
*1826 FILLER_0_30_29
*1827 FILLER_0_30_294
*1828 FILLER_0_30_3
*1829 FILLER_0_30_41
*1830 FILLER_0_30_53
*1831 FILLER_0_30_65
*1832 FILLER_0_30_69
*1833 FILLER_0_30_85
*1834 FILLER_0_30_97
*1835 FILLER_0_31_109
*1836 FILLER_0_31_113
*1837 FILLER_0_31_125
*1838 FILLER_0_31_161
*1839 FILLER_0_31_177
*1840 FILLER_0_31_183
*1841 FILLER_0_31_192
*1842 FILLER_0_31_204
*1843 FILLER_0_31_216
*1844 FILLER_0_31_230
*1845 FILLER_0_31_239
*1846 FILLER_0_31_251
*1847 FILLER_0_31_266
*1848 FILLER_0_31_279
*1849 FILLER_0_31_286
*1850 FILLER_0_31_294
*1851 FILLER_0_31_35
*1852 FILLER_0_31_54
*1853 FILLER_0_31_7
*1854 FILLER_0_31_71
*1855 FILLER_0_31_77
*1856 FILLER_0_31_89
*1857 FILLER_0_31_97
*1858 FILLER_0_32_119
*1859 FILLER_0_32_131
*1860 FILLER_0_32_139
*1861 FILLER_0_32_141
*1862 FILLER_0_32_145
*1863 FILLER_0_32_157
*1864 FILLER_0_32_161
*1865 FILLER_0_32_167
*1866 FILLER_0_32_179
*1867 FILLER_0_32_19
*1868 FILLER_0_32_190
*1869 FILLER_0_32_197
*1870 FILLER_0_32_203
*1871 FILLER_0_32_224
*1872 FILLER_0_32_236
*1873 FILLER_0_32_242
*1874 FILLER_0_32_250
*1875 FILLER_0_32_253
*1876 FILLER_0_32_27
*1877 FILLER_0_32_271
*1878 FILLER_0_32_286
*1879 FILLER_0_32_29
*1880 FILLER_0_32_294
*1881 FILLER_0_32_35
*1882 FILLER_0_32_44
*1883 FILLER_0_32_56
*1884 FILLER_0_32_7
*1885 FILLER_0_32_83
*1886 FILLER_0_32_85
*1887 FILLER_0_33_104
*1888 FILLER_0_33_143
*1889 FILLER_0_33_147
*1890 FILLER_0_33_160
*1891 FILLER_0_33_166
*1892 FILLER_0_33_169
*1893 FILLER_0_33_201
*1894 FILLER_0_33_213
*1895 FILLER_0_33_221
*1896 FILLER_0_33_231
*1897 FILLER_0_33_238
*1898 FILLER_0_33_249
*1899 FILLER_0_33_26
*1900 FILLER_0_33_261
*1901 FILLER_0_33_273
*1902 FILLER_0_33_279
*1903 FILLER_0_33_281
*1904 FILLER_0_33_293
*1905 FILLER_0_33_3
*1906 FILLER_0_33_47
*1907 FILLER_0_33_57